clock {
	timezone PST8;
	starttime '2013-07-29 14:00:00';
	stoptime '2013-07-29 14:00:12';
}

#include "appliance_schedules.glm"
#include "water_and_setpoint_schedule_v5.glm"
#define stylesheet=http://gridlab-d.svn.sourceforge.net/viewvc/gridlab-d/trunk/core/gridlabd-2_0

#set minimum_timestep=4
#set profiler=1
#set relax_naming_rules=1
#set randomseed=10
#set suppress_repeat_messages=TRUE

module market;
module tape;
module climate;
module residential {
	implicit_enduses NONE;
};
module powerflow {
	solver_method FBS;
	line_limits TRUE;
	default_maximum_voltage_error 1e-4;
};
module generators;
module connection {
    security STANDARD;
    lockout 1 min;
};

object fncs_msg {
	 name GLD;
	 option "transport:hostname localhost, port 5570";
	 configure fncs_configure.cfg;
}

object climate {
	name ClimateWeather;
	interpolate QUADRATIC;
	tmyfile AZ-Phoenix.tmy3;
}

object substation {
	name network_node;
	phases ABCN;
	nominal_voltage 2401.7771;
	power_convergence_value 100;
	positive_sequence_voltage 2401.7771;
	bustype SWING;
	base_power 100;
}

object transformer_configuration {
	name trans_config_to_feeder;
	primary_voltage 2401.7771;
	install_type PADMOUNT;
	impedance 0.00033+0.0022j;
	secondary_voltage 2401.7771;
	connect_type WYE_WYE;
	power_rating 5.8 MVA;
}

object transformer_configuration {
	name tc5600;
	shunt_impedance 339.610+287.181j;
	install_type POLETOP;
	secondary_voltage 207.846;
	resistance 0.00600;
	connect_type SINGLE_PHASE_CENTER_TAPPED;
	reactance 0.00400;
	primary_voltage 4160.000;
	powerA_rating 100.0;
	power_rating 100.0;
}

object transformer_configuration {
	name tc5601;
	shunt_impedance 339.610+287.181j;
	install_type POLETOP;
	secondary_voltage 207.846;
	resistance 0.00600;
	connect_type SINGLE_PHASE_CENTER_TAPPED;
	reactance 0.00400;
	primary_voltage 4160.000;
	powerB_rating 100.0;
	power_rating 100.0;
}

object transformer_configuration {
	name tc5602;
	powerC_rating 100.0;
	shunt_impedance 339.610+287.181j;
	install_type POLETOP;
	secondary_voltage 207.846;
	resistance 0.00600;
	connect_type SINGLE_PHASE_CENTER_TAPPED;
	reactance 0.00400;
	primary_voltage 4160.000;
	power_rating 100.0;
}

object transformer_configuration {
	name tc400;
	power_rating 150;
	primary_voltage 4160;
	install_type PADMOUNT;
	secondary_voltage 480;
	connect_type DELTA_DELTA;
	resistance 0.0127;
	reactance 0.0272;
}

object transformer {
	name substation_transformer;
	phases ABCN;
	from network_node;
	to n150;
	configuration trans_config_to_feeder;
	groupid Distribution_Trans;
}

object transformer {
	name triplex_l1;
	phases AS;
	from l1;
	to l1_tpn;
	configuration tc5600;
	groupid Distribution_Trans;
}

object transformer {
	name triplex_l2;
	phases BS;
	from l2;
	to l2_tpn;
	configuration tc5601;
	groupid Distribution_Trans;
}

object transformer {
	name triplex_l4;
	phases CS;
	from l4;
	to l4_tpn;
	configuration tc5602;
	groupid Distribution_Trans;
}

object transformer {
	name triplex_l5;
	phases CS;
	from l5;
	to l5_tpn;
	configuration tc5602;
	groupid Distribution_Trans;
}

object transformer {
	name triplex_l6;
	phases CS;
	from l6;
	to l6_tpn;
	configuration tc5602;
	groupid Distribution_Trans;
}

object transformer {
	name triplex_l7;
	phases AS;
	from l7;
	to l7_tpn;
	configuration tc5600;
	groupid Distribution_Trans;
}

object transformer {
	name triplex_l9;
	phases AS;
	from l9;
	to l9_tpn;
	configuration tc5600;
	groupid Distribution_Trans;
}

object transformer {
	name triplex_l10;
	phases AS;
	from l10;
	to l10_tpn;
	configuration tc5600;
	groupid Distribution_Trans;
}

object transformer {
	name triplex_l11;
	phases AS;
	from l11;
	to l11_tpn;
	configuration tc5600;
	groupid Distribution_Trans;
}

object transformer {
	name triplex_l12;
	phases BS;
	from l12;
	to l12_tpn;
	configuration tc5601;
	groupid Distribution_Trans;
}

object transformer {
	name triplex_l16;
	phases CS;
	from l16;
	to l16_tpn;
	configuration tc5602;
	groupid Distribution_Trans;
}

object transformer {
	name triplex_l17;
	phases CS;
	from l17;
	to l17_tpn;
	configuration tc5602;
	groupid Distribution_Trans;
}

object transformer {
	name triplex_l19;
	phases AS;
	from l19;
	to l19_tpn;
	configuration tc5600;
	groupid Distribution_Trans;
}

object transformer {
	name triplex_l20;
	phases AS;
	from l20;
	to l20_tpn;
	configuration tc5600;
	groupid Distribution_Trans;
}

object transformer {
	name triplex_l22;
	phases BS;
	from l22;
	to l22_tpn;
	configuration tc5601;
	groupid Distribution_Trans;
}

object transformer {
	name triplex_l24;
	phases CS;
	from l24;
	to l24_tpn;
	configuration tc5602;
	groupid Distribution_Trans;
}

object transformer {
	name triplex_l28;
	phases AS;
	from l28;
	to l28_tpn;
	configuration tc5600;
	groupid Distribution_Trans;
}

object transformer {
	name triplex_l29;
	phases AS;
	from l29;
	to l29_tpn;
	configuration tc5600;
	groupid Distribution_Trans;
}

object transformer {
	name triplex_l30;
	phases CS;
	from l30;
	to l30_tpn;
	configuration tc5602;
	groupid Distribution_Trans;
}

object transformer {
	name triplex_l31;
	phases CS;
	from l31;
	to l31_tpn;
	configuration tc5602;
	groupid Distribution_Trans;
}

object transformer {
	name triplex_l32;
	phases CS;
	from l32;
	to l32_tpn;
	configuration tc5602;
	groupid Distribution_Trans;
}

object transformer {
	name triplex_l33;
	phases AS;
	from l33;
	to l33_tpn;
	configuration tc5600;
	groupid Distribution_Trans;
}

object transformer {
	name triplex_l34;
	phases CS;
	from l34;
	to l34_tpn;
	configuration tc5602;
	groupid Distribution_Trans;
}

object transformer {
	name triplex_l37;
	phases AS;
	from l37;
	to l37_tpn;
	configuration tc5600;
	groupid Distribution_Trans;
}

object transformer {
	name triplex_l38;
	phases BS;
	from l38;
	to l38_tpn;
	configuration tc5601;
	groupid Distribution_Trans;
}

object transformer {
	name triplex_l39;
	phases BS;
	from l39;
	to l39_tpn;
	configuration tc5601;
	groupid Distribution_Trans;
}

object transformer {
	name triplex_l41;
	phases CS;
	from l41;
	to l41_tpn;
	configuration tc5602;
	groupid Distribution_Trans;
}

object transformer {
	name triplex_l42;
	phases AS;
	from l42;
	to l42_tpn;
	configuration tc5600;
	groupid Distribution_Trans;
}

object transformer {
	name triplex_l43;
	phases BS;
	from l43;
	to l43_tpn;
	configuration tc5601;
	groupid Distribution_Trans;
}

object transformer {
	name triplex_l45;
	phases AS;
	from l45;
	to l45_tpn;
	configuration tc5600;
	groupid Distribution_Trans;
}

object transformer {
	name triplex_l46;
	phases AS;
	from l46;
	to l46_tpn;
	configuration tc5600;
	groupid Distribution_Trans;
}

object transformer {
	name triplex_l50;
	phases CS;
	from l50;
	to l50_tpn;
	configuration tc5602;
	groupid Distribution_Trans;
}

object transformer {
	name triplex_l51;
	phases AS;
	from l51;
	to l51_tpn;
	configuration tc5600;
	groupid Distribution_Trans;
}

object transformer {
	name triplex_l52;
	phases AS;
	from l52;
	to l52_tpn;
	configuration tc5600;
	groupid Distribution_Trans;
}

object transformer {
	name triplex_l53;
	phases AS;
	from l53;
	to l53_tpn;
	configuration tc5600;
	groupid Distribution_Trans;
}

object transformer {
	name triplex_l55;
	phases AS;
	from l55;
	to l55_tpn;
	configuration tc5600;
	groupid Distribution_Trans;
}

object transformer {
	name triplex_l56;
	phases BS;
	from l56;
	to l56_tpn;
	configuration tc5601;
	groupid Distribution_Trans;
}

object transformer {
	name triplex_l58;
	phases BS;
	from l58;
	to l58_tpn;
	configuration tc5601;
	groupid Distribution_Trans;
}

object transformer {
	name triplex_l59;
	phases BS;
	from l59;
	to l59_tpn;
	configuration tc5601;
	groupid Distribution_Trans;
}

object transformer {
	name triplex_l60;
	phases AS;
	from l60;
	to l60_tpn;
	configuration tc5600;
	groupid Distribution_Trans;
}

object transformer {
	name triplex_l62;
	phases CS;
	from l62;
	to l62_tpn;
	configuration tc5602;
	groupid Distribution_Trans;
}

object transformer {
	name triplex_l63;
	phases AS;
	from l63;
	to l63_tpn;
	configuration tc5600;
	groupid Distribution_Trans;
}

object transformer {
	name triplex_l64;
	phases BS;
	from l64;
	to l64_tpn;
	configuration tc5601;
	groupid Distribution_Trans;
}

object transformer {
	name triplex_l66;
	phases CS;
	from l66;
	to l66_tpn;
	configuration tc5602;
	groupid Distribution_Trans;
}

object transformer {
	name triplex_l68;
	phases AS;
	from l68;
	to l68_tpn;
	configuration tc5600;
	groupid Distribution_Trans;
}

object transformer {
	name triplex_l69;
	phases AS;
	from l69;
	to l69_tpn;
	configuration tc5600;
	groupid Distribution_Trans;
}

object transformer {
	name triplex_l70;
	phases AS;
	from l70;
	to l70_tpn;
	configuration tc5600;
	groupid Distribution_Trans;
}

object transformer {
	name triplex_l71;
	phases AS;
	from l71;
	to l71_tpn;
	configuration tc5600;
	groupid Distribution_Trans;
}

object transformer {
	name triplex_l73;
	phases CS;
	from l73;
	to l73_tpn;
	configuration tc5602;
	groupid Distribution_Trans;
}

object transformer {
	name triplex_l74;
	phases CS;
	from l74;
	to l74_tpn;
	configuration tc5602;
	groupid Distribution_Trans;
}

object transformer {
	name triplex_l75;
	phases CS;
	from l75;
	to l75_tpn;
	configuration tc5602;
	groupid Distribution_Trans;
}

object transformer {
	name triplex_l77;
	phases BS;
	from l77;
	to l77_tpn;
	configuration tc5601;
	groupid Distribution_Trans;
}

object transformer {
	name triplex_l79;
	phases AS;
	from l79;
	to l79_tpn;
	configuration tc5600;
	groupid Distribution_Trans;
}

object transformer {
	name triplex_l80;
	phases BS;
	from l80;
	to l80_tpn;
	configuration tc5601;
	groupid Distribution_Trans;
}

object transformer {
	name triplex_l82;
	phases AS;
	from l82;
	to l82_tpn;
	configuration tc5600;
	groupid Distribution_Trans;
}

object transformer {
	name triplex_l83;
	phases CS;
	from l83;
	to l83_tpn;
	configuration tc5602;
	groupid Distribution_Trans;
}

object transformer {
	name triplex_l84;
	phases CS;
	from l84;
	to l84_tpn;
	configuration tc5602;
	groupid Distribution_Trans;
}

object transformer {
	name triplex_l85;
	phases CS;
	from l85;
	to l85_tpn;
	configuration tc5602;
	groupid Distribution_Trans;
}

object transformer {
	name triplex_l86;
	phases BS;
	from l86;
	to l86_tpn;
	configuration tc5601;
	groupid Distribution_Trans;
}

object transformer {
	name triplex_l87;
	phases BS;
	from l87;
	to l87_tpn;
	configuration tc5601;
	groupid Distribution_Trans;
}

object transformer {
	name triplex_l88;
	phases AS;
	from l88;
	to l88_tpn;
	configuration tc5600;
	groupid Distribution_Trans;
}

object transformer {
	name triplex_l90;
	phases BS;
	from l90;
	to l90_tpn;
	configuration tc5601;
	groupid Distribution_Trans;
}

object transformer {
	name triplex_l92;
	phases CS;
	from l92;
	to l92_tpn;
	configuration tc5602;
	groupid Distribution_Trans;
}

object transformer {
	name triplex_l94;
	phases AS;
	from l94;
	to l94_tpn;
	configuration tc5600;
	groupid Distribution_Trans;
}

object transformer {
	name triplex_l95;
	phases BS;
	from l95;
	to l95_tpn;
	configuration tc5601;
	groupid Distribution_Trans;
}

object transformer {
	name triplex_l96;
	phases BS;
	from l96;
	to l96_tpn;
	configuration tc5601;
	groupid Distribution_Trans;
}

object transformer {
	name triplex_l98;
	phases AS;
	from l98;
	to l98_tpn;
	configuration tc5600;
	groupid Distribution_Trans;
}

object transformer {
	name triplex_l99;
	phases BS;
	from l99;
	to l99_tpn;
	configuration tc5601;
	groupid Distribution_Trans;
}

object transformer {
	name triplex_l100;
	phases CS;
	from l100;
	to l100_tpn;
	configuration tc5602;
	groupid Distribution_Trans;
}

object transformer {
	name triplex_l102;
	phases CS;
	from l102;
	to l102_tpn;
	configuration tc5602;
	groupid Distribution_Trans;
}

object transformer {
	name triplex_l103;
	phases CS;
	from l103;
	to l103_tpn;
	configuration tc5602;
	groupid Distribution_Trans;
}

object transformer {
	name triplex_l104;
	phases CS;
	from l104;
	to l104_tpn;
	configuration tc5602;
	groupid Distribution_Trans;
}

object transformer {
	name triplex_l106;
	phases BS;
	from l106;
	to l106_tpn;
	configuration tc5601;
	groupid Distribution_Trans;
}

object transformer {
	name triplex_l107;
	phases BS;
	from l107;
	to l107_tpn;
	configuration tc5601;
	groupid Distribution_Trans;
}

object transformer {
	name triplex_l109;
	phases AS;
	from l109;
	to l109_tpn;
	configuration tc5600;
	groupid Distribution_Trans;
}

object transformer {
	name triplex_l111;
	phases AS;
	from l111;
	to l111_tpn;
	configuration tc5600;
	groupid Distribution_Trans;
}

object transformer {
	name triplex_l112;
	phases AS;
	from l112;
	to l112_tpn;
	configuration tc5600;
	groupid Distribution_Trans;
}

object transformer {
	name triplex_l113;
	phases AS;
	from l113;
	to l113_tpn;
	configuration tc5600;
	groupid Distribution_Trans;
}

object transformer {
	name triplex_l114;
	phases AS;
	from l114;
	to l114_tpn;
	configuration tc5600;
	groupid Distribution_Trans;
}

object transformer {
	name tran611610;
	phases "ABCN";
	from n611;
	to n610;
	configuration tc400;
	groupid Distribution_Trans;
}

object overhead_line_conductor {
	name olc10001;
	geometric_mean_radius 0.0244;
	resistance 0.30600;
}

object overhead_line_conductor {
	name olc10009;
	geometric_mean_radius 0.004460;
	resistance 1.12000;
}

object overhead_line_conductor {
	name olc10002;
	geometric_mean_radius 0.008140;
	resistance 0.59200;
}

object underground_line_conductor {
	name ulc10003;
	conductor_resistance 0.970000;
	shield_resistance 0.000000;
	neutral_gmr 0.011100;
	outer_diameter 1.060000;
	neutral_strands 6.000000;
	neutral_resistance 0.970000;
	neutral_diameter 0.0640837;
	conductor_diameter 0.368000;
	shield_gmr 0.000000;
	conductor_gmr 0.011100;
}

object triplex_line_conductor {
	name tlc1000;
	rating.winter.emergency 1000.0;
	geometric_mean_radius 0.0158;
	resistance 0.48;
	rating.summer.emergency 1000.0;
	rating.winter.continuous 1000.0;
	rating.summer.continuous 1000.0;
}

object line_spacing {
	name ls5001;
	distance_AN 5.656854;
	distance_CN 5.0;
	distance_BC 4.5;
	distance_AB 2.5;
	distance_AC 7.0;
	distance_BN 4.272002;
}

object line_spacing {
	name ls5002;
	distance_AN 5.0;
	distance_CN 5.656854;
	distance_BC 7.0;
	distance_AB 4.5;
	distance_AC 2.5;
	distance_BN 4.272002;
}

object line_spacing {
	name ls5003;
	distance_AN 5.0;
	distance_CN 4.272002;
	distance_BC 2.5;
	distance_AB 7.0;
	distance_AC 4.5;
	distance_BN 5.656854;
}

object line_spacing {
	name ls5004;
	distance_AN 5.0;
	distance_CN 5.656854;
	distance_BC 2.5;
	distance_AB 4.5;
	distance_AC 7.0;
	distance_BN 4.272002;
}

object line_spacing {
	name ls5005;
	distance_BC 7.0;
	distance_CN 5.0;
	distance_AN 4.272002;
	distance_AB 2.5;
	distance_BN 5.656854;
	distance_AC 4.5;
}

object line_spacing {
	name ls5006;
	distance_AN 5.656854;
	distance_CN 4.272002;
	distance_BC 4.5;
	distance_AB 7.0;
	distance_AC 2.5;
	distance_BN 5.0;
}

object line_spacing {
	name ls5007;
	distance_AN 5.656854;
	distance_CN 5.0;
	distance_BC 0.0;
	distance_AB 0.0;
	distance_AC 7.0;
	distance_BN 0.0;
}

object line_spacing {
	name ls5008;
	distance_AN 5.656854;
	distance_CN 0.0;
	distance_BC 0.0;
	distance_AB 7.0;
	distance_AC 0.0;
	distance_BN 5.0;
}

object line_spacing {
	name ls5009;
	distance_AN 5.0;
	distance_CN 0.0;
	distance_BC 0.0;
	distance_AB 0.0;
	distance_AC 0.0;
	distance_BN 0.0;
}

object line_spacing {
	name ls50010;
	distance_AN 0.0;
	distance_CN 0.0;
	distance_BC 0.0;
	distance_AB 0.0;
	distance_AC 0.0;
	distance_BN 5.0;
}

object line_spacing {
	name ls50011;
	distance_AN 0.0;
	distance_CN 5.0;
	distance_BC 0.0;
	distance_AB 0.0;
	distance_AC 0.0;
	distance_BN 0.0;
}

object line_spacing {
	name ls50012;
	distance_AN 0.0;
	distance_CN 0.0;
	distance_BC 0.5;
	distance_AB 0.5;
	distance_AC 1.0;
	distance_BN 0.0;
}

object triplex_line_configuration {
	name lc1000;
	diameter 0.522;
	conductor_1 tlc1000;
	conductor_2 tlc1000;
	conductor_N tlc1000;
	insulation_thickness 0.08;
}

object line_configuration {
	name lc1001;
	spacing ls5001;
	conductor_N olc10002;
	conductor_A olc10001;
	conductor_C olc10001;
	conductor_B olc10001;
}

object line_configuration {
	name lc1002;
	spacing ls5002;
	conductor_N olc10002;
	conductor_A olc10001;
	conductor_C olc10001;
	conductor_B olc10001;
}

object line_configuration {
	name lc1003;
	spacing ls5003;
	conductor_N olc10002;
	conductor_A olc10001;
	conductor_C olc10001;
	conductor_B olc10001;
}

object line_configuration {
	name lc1004;
	spacing ls5004;
	conductor_N olc10002;
	conductor_A olc10001;
	conductor_C olc10001;
	conductor_B olc10001;
}

object line_configuration {
	name lc1005;
	spacing ls5005;
	conductor_N olc10002;
	conductor_A olc10001;
	conductor_C olc10001;
	conductor_B olc10001;
}

object line_configuration {
	name lc1006;
	spacing ls5006;
	conductor_N olc10002;
	conductor_A olc10001;
	conductor_C olc10001;
	conductor_B olc10001;
}

object line_configuration {
	name lc1007;
	spacing ls5007;
	conductor_N olc10002;
	conductor_A olc10001;
	conductor_C olc10001;
}

object line_configuration {
	name lc1008;
	spacing ls5008;
	conductor_N olc10002;
	conductor_A olc10001;
	conductor_B olc10001;
}

object line_configuration {
	name lc1009;
	conductor_A olc10009;
	conductor_N olc10009;
	spacing ls5009;
}

object line_configuration {
	name lc10010;
	conductor_N olc10009;
	spacing ls50010;
	conductor_B olc10009;
}

object line_configuration {
	name lc10011;
	conductor_C olc10009;
	conductor_N olc10009;
	spacing ls50011;
}

object line_configuration {
	name lc10012;
	spacing ls50012;
	conductor_A ulc10003;
	conductor_C ulc10003;
	conductor_B ulc10003;
}

object overhead_line {
	name linobj12;
	phases "BN";
	from l1;
	to l2;
	length 175;
	configuration lc10010;
	groupid Distribution_Line;
}

object overhead_line {
	name linobj13;
	phases "CN";
	from l1;
	to n3;
	length 250;
	configuration lc10011;
	groupid Distribution_Line;
}

object overhead_line {
	name linobj17;
	phases "ABCN";
	from l1;
	to l7;
	length 300;
	configuration lc1001;
	groupid Distribution_Line;
}

object overhead_line {
	name linobj34;
	phases "CN";
	from n3;
	to l4;
	length 200;
	configuration lc10011;
	groupid Distribution_Line;
}

object overhead_line {
	name linobj35;
	phases "CN";
	from n3;
	to l5;
	length 325;
	configuration lc10011;
	groupid Distribution_Line;
}

object overhead_line {
	name linobj56;
	phases "CN";
	from l5;
	to l6;
	length 250;
	configuration lc10011;
	groupid Distribution_Line;
}

object overhead_line {
	name linobj78;
	phases "ABCN";
	from l7;
	to n8;
	length 200;
	configuration lc1001;
	groupid Distribution_Line;
}

object overhead_line {
	name linobj812;
	phases "BN";
	from n8;
	to l12;
	length 225;
	configuration lc10010;
	groupid Distribution_Line;
}

object overhead_line {
	name linobj89;
	phases "AN";
	from n8;
	to l9;
	length 225;
	configuration lc1009;
	groupid Distribution_Line;
}

object overhead_line {
	name linobj813;
	phases "ABCN";
	from n8;
	to n13;
	length 300;
	configuration lc1001;
	groupid Distribution_Line;
}

object overhead_line {
	name linobj140114;
	phases "AN";
	from n1401;
	to n14;
	length 425;
	configuration lc1009;
	groupid Distribution_Line;
}

object overhead_line {
	name linobj1334;
	phases "CN";
	from n13;
	to l34;
	length 150;
	configuration lc10011;
	groupid Distribution_Line;
}

object overhead_line {
	name linobj1318;
	phases "ABCN";
	from n13;
	to n18;
	length 825;
	configuration lc1002;
	groupid Distribution_Line;
}

object overhead_line {
	name linobj1411;
	phases "AN";
	from n14;
	to l11;
	length 250;
	configuration lc1009;
	groupid Distribution_Line;
}

object overhead_line {
	name linobj1410;
	phases "AN";
	from n14;
	to l10;
	length 250;
	configuration lc1009;
	groupid Distribution_Line;
}

object overhead_line {
	name linobj1516;
	phases "CN";
	from n15;
	to l16;
	length 375;
	configuration lc10011;
	groupid Distribution_Line;
}

object overhead_line {
	name linobj1517;
	phases "CN";
	from n15;
	to l17;
	length 350;
	configuration lc10011;
	groupid Distribution_Line;
}

object overhead_line {
	name linobj1819;
	phases "AN";
	from n18;
	to l19;
	length 250;
	configuration lc1009;
	groupid Distribution_Line;
}

object overhead_line {
	name linobj1821;
	phases "ABCN";
	from n18;
	to n21;
	length 300;
	configuration lc1002;
	groupid Distribution_Line;
}

object overhead_line {
	name linobj1920;
	phases "AN";
	from l19;
	to l20;
	length 325;
	configuration lc1009;
	groupid Distribution_Line;
}

object overhead_line {
	name linobj2122;
	phases "BN";
	from n21;
	to l22;
	length 525;
	configuration lc10010;
	groupid Distribution_Line;
}

object overhead_line {
	name linobj2123;
	phases "ABCN";
	from n21;
	to n23;
	length 250;
	configuration lc1002;
	groupid Distribution_Line;
}

object overhead_line {
	name linobj2324;
	phases "CN";
	from n23;
	to l24;
	length 550;
	configuration lc10011;
	groupid Distribution_Line;
}

object overhead_line {
	name linobj2325;
	phases "ABCN";
	from n23;
	to n25;
	length 275;
	configuration lc1002;
	groupid Distribution_Line;
}

object overhead_line {
	name linobj260126;
	phases "ACN";
	from n2601;
	to n26;
	length 350;
	configuration lc1007;
	groupid Distribution_Line;
}

object overhead_line {
	name linobj2528;
	phases "ABCN";
	from n25;
	to l28;
	length 200;
	configuration lc1002;
	groupid Distribution_Line;
}

object overhead_line {
	name linobj2627;
	phases "ACN";
	from n26;
	to n27;
	length 275;
	configuration lc1007;
	groupid Distribution_Line;
}

object overhead_line {
	name linobj2631;
	phases "CN";
	from n26;
	to l31;
	length 225;
	configuration lc10011;
	groupid Distribution_Line;
}

object overhead_line {
	name linobj2733;
	phases "AN";
	from n27;
	to l33;
	length 500;
	configuration lc1009;
	groupid Distribution_Line;
}

object overhead_line {
	name linobj2829;
	phases "ABCN";
	from l28;
	to l29;
	length 300;
	configuration lc1002;
	groupid Distribution_Line;
}

object overhead_line {
	name linobj2930;
	phases "ABCN";
	from l29;
	to l30;
	length 350;
	configuration lc1002;
	groupid Distribution_Line;
}

object overhead_line {
	name linobj30250;
	phases "ABCN";
	from l30;
	to n250;
	length 200;
	configuration lc1002;
	groupid Distribution_Line;
}

object overhead_line {
	name linobj3132;
	phases "CN";
	from l31;
	to l32;
	length 300;
	configuration lc10011;
	groupid Distribution_Line;
}

object overhead_line {
	name linobj3415;
	phases "CN";
	from l34;
	to n15;
	length 100;
	configuration lc10011;
	groupid Distribution_Line;
}

object overhead_line {
	name linobj3536;
	phases "ABN";
	from l35;
	to n36;
	length 650;
	configuration lc1008;
	groupid Distribution_Line;
}

object overhead_line {
	name linobj3540;
	phases "ABCN";
	from l35;
	to n40;
	length 250;
	configuration lc1001;
	groupid Distribution_Line;
}

object overhead_line {
	name linobj3637;
	phases "AN";
	from n36;
	to l37;
	length 300;
	configuration lc1009;
	groupid Distribution_Line;
}

object overhead_line {
	name linobj3638;
	phases "BN";
	from n36;
	to l38;
	length 250;
	configuration lc10010;
	groupid Distribution_Line;
}

object overhead_line {
	name linobj3839;
	phases "BN";
	from l38;
	to l39;
	length 325;
	configuration lc10010;
	groupid Distribution_Line;
}

object overhead_line {
	name linobj4041;
	phases "CN";
	from n40;
	to l41;
	length 325;
	configuration lc10011;
	groupid Distribution_Line;
}

object overhead_line {
	name linobj4042;
	phases "ABCN";
	from n40;
	to l42;
	length 250;
	configuration lc1001;
	groupid Distribution_Line;
}

object overhead_line {
	name linobj4243;
	phases "BN";
	from l42;
	to l43;
	length 500;
	configuration lc10010;
	groupid Distribution_Line;
}

object overhead_line {
	name linobj4244;
	phases "ABCN";
	from l42;
	to n44;
	length 200;
	configuration lc1001;
	groupid Distribution_Line;
}

object overhead_line {
	name linobj4445;
	phases "AN";
	from n44;
	to l45;
	length 200;
	configuration lc1009;
	groupid Distribution_Line;
}

object overhead_line {
	name linobj4447;
	phases "ABCN";
	from n44;
	to l47;
	length 250;
	configuration lc1001;
	groupid Distribution_Line;
}

object overhead_line {
	name linobj4546;
	phases "AN";
	from l45;
	to l46;
	length 300;
	configuration lc1009;
	groupid Distribution_Line;
}

object overhead_line {
	name linobj4748;
	phases "ABCN";
	from l47;
	to l48;
	length 150;
	configuration lc1004;
	groupid Distribution_Line;
}

object overhead_line {
	name linobj4749;
	phases "ABCN";
	from l47;
	to l49;
	length 250;
	configuration lc1004;
	groupid Distribution_Line;
}

object overhead_line {
	name linobj4950;
	phases "ABCN";
	from l49;
	to l50;
	length 250;
	configuration lc1004;
	groupid Distribution_Line;
}

object overhead_line {
	name linobj5051;
	phases "ABCN";
	from l50;
	to l51;
	length 250;
	configuration lc1004;
	groupid Distribution_Line;
}

object overhead_line {
	name linobj51151;
	phases "ABCN";
	from l51;
	to n151;
	length 700;
	configuration lc1004;
	groupid Distribution_Line;
}

object overhead_line {
	name linobj5253;
	phases "ABCN";
	from l52;
	to l53;
	length 200;
	configuration lc1001;
	groupid Distribution_Line;
}

object overhead_line {
	name linobj5354;
	phases "ABCN";
	from l53;
	to n54;
	length 125;
	configuration lc1001;
	groupid Distribution_Line;
}

object overhead_line {
	name linobj5455;
	phases "ABCN";
	from n54;
	to l55;
	length 275;
	configuration lc1001;
	groupid Distribution_Line;
}

object overhead_line {
	name linobj5457;
	phases "ABCN";
	from n54;
	to n57;
	length 350;
	configuration lc1003;
	groupid Distribution_Line;
}

object overhead_line {
	name linobj5556;
	phases "ABCN";
	from l55;
	to l56;
	length 275;
	configuration lc1001;
	groupid Distribution_Line;
}

object overhead_line {
	name linobj5758;
	phases "BN";
	from n57;
	to l58;
	length 250;
	configuration lc10010;
	groupid Distribution_Line;
}

object overhead_line {
	name linobj5760;
	phases "ABCN";
	from n57;
	to l60;
	length 750;
	configuration lc1003;
	groupid Distribution_Line;
}

object overhead_line {
	name linobj5859;
	phases "BN";
	from l58;
	to l59;
	length 250;
	configuration lc10010;
	groupid Distribution_Line;
}

object overhead_line {
	name linobj6061;
	phases "ABCN";
	from l60;
	to n61;
	length 550;
	configuration lc1005;
	groupid Distribution_Line;
}

object overhead_line {
	name linobj6768;
	phases "AN";
	from n67;
	to l68;
	length 200;
	configuration lc1009;
	groupid Distribution_Line;
}

object overhead_line {
	name linobj6772;
	phases "ABCN";
	from n67;
	to n72;
	length 275;
	configuration lc1003;
	groupid Distribution_Line;
}

object overhead_line {
	name linobj6797;
	phases "ABCN";
	from n67;
	to n97;
	length 250;
	configuration lc1003;
	groupid Distribution_Line;
}

object overhead_line {
	name linobj6869;
	phases "AN";
	from l68;
	to l69;
	length 275;
	configuration lc1009;
	groupid Distribution_Line;
}

object overhead_line {
	name linobj6970;
	phases "AN";
	from l69;
	to l70;
	length 325;
	configuration lc1009;
	groupid Distribution_Line;
}

object overhead_line {
	name linobj7071;
	phases "AN";
	from l70;
	to l71;
	length 275;
	configuration lc1009;
	groupid Distribution_Line;
}

object overhead_line {
	name linobj7273;
	phases "CN";
	from n72;
	to l73;
	length 275;
	configuration lc10011;
	groupid Distribution_Line;
}

object overhead_line {
	name linobj7276;
	phases "ABCN";
	from n72;
	to l76;
	length 200;
	configuration lc1003;
	groupid Distribution_Line;
}

object overhead_line {
	name linobj7374;
	phases "CN";
	from l73;
	to l74;
	length 350;
	configuration lc10011;
	groupid Distribution_Line;
}

object overhead_line {
	name linobj7475;
	phases "CN";
	from l74;
	to l75;
	length 400;
	configuration lc10011;
	groupid Distribution_Line;
}

object overhead_line {
	name linobj7677;
	phases "ABCN";
	from l76;
	to l77;
	length 400;
	configuration lc1006;
	groupid Distribution_Line;
}

object overhead_line {
	name linobj7686;
	phases "ABCN";
	from l76;
	to l86;
	length 700;
	configuration lc1003;
	groupid Distribution_Line;
}

object overhead_line {
	name linobj7778;
	phases "ABCN";
	from l77;
	to n78;
	length 100;
	configuration lc1006;
	groupid Distribution_Line;
}

object overhead_line {
	name linobj7879;
	phases "ABCN";
	from n78;
	to l79;
	length 225;
	configuration lc1006;
	groupid Distribution_Line;
}

object overhead_line {
	name linobj7880;
	phases "ABCN";
	from n78;
	to l80;
	length 475;
	configuration lc1006;
	groupid Distribution_Line;
}

object overhead_line {
	name linobj8081;
	phases "ABCN";
	from l80;
	to n81;
	length 475;
	configuration lc1006;
	groupid Distribution_Line;
}

object overhead_line {
	name linobj8182;
	phases "ABCN";
	from n81;
	to l82;
	length 250;
	configuration lc1006;
	groupid Distribution_Line;
}

object overhead_line {
	name linobj8184;
	phases "CN";
	from n81;
	to l84;
	length 675;
	configuration lc10011;
	groupid Distribution_Line;
}

object overhead_line {
	name linobj8283;
	phases "ABCN";
	from l82;
	to l83;
	length 250;
	configuration lc1006;
	groupid Distribution_Line;
}

object overhead_line {
	name linobj8485;
	phases "CN";
	from l84;
	to l85;
	length 475;
	configuration lc10011;
	groupid Distribution_Line;
}

object overhead_line {
	name linobj8687;
	phases "ABCN";
	from l86;
	to l87;
	length 450;
	configuration lc1006;
	groupid Distribution_Line;
}

object overhead_line {
	name linobj8788;
	phases "AN";
	from l87;
	to l88;
	length 175;
	configuration lc1009;
	groupid Distribution_Line;
}

object overhead_line {
	name linobj8789;
	phases "ABCN";
	from l87;
	to n89;
	length 275;
	configuration lc1006;
	groupid Distribution_Line;
}

object overhead_line {
	name linobj8990;
	phases "BN";
	from n89;
	to l90;
	length 225;
	configuration lc10010;
	groupid Distribution_Line;
}

object overhead_line {
	name linobj8991;
	phases "ABCN";
	from n89;
	to n91;
	length 225;
	configuration lc1006;
	groupid Distribution_Line;
}

object overhead_line {
	name linobj9192;
	phases "CN";
	from n91;
	to l92;
	length 300;
	configuration lc10011;
	groupid Distribution_Line;
}

object overhead_line {
	name linobj9193;
	phases "ABCN";
	from n91;
	to n93;
	length 225;
	configuration lc1006;
	groupid Distribution_Line;
}
